 &NAMCTL  LN_CTL = F, SN_CFCTL = T, T, F, F, F, F, F, 0, 1000000, 1, 24, NN_PRINT = 0, NN_ICTLS = 0, NN_ICTLE = 0, NN_ISPLT = 1, NN_JSPLT = 1, NN_JCTLS = 0, NN_JCTLE = 0, LN_TIMING = T, LN_DIACFL = T /
 &NAMCFG  LN_READ_CFG = T, CN_DOMCFG = ./domain_cfg.nc                                                                                                                                                                                                                                                 , LN_CLOSEA = F, LN_WRITE_CFG = F, CN_DOMCFG_OUT = domain_cfg_out                                                                                                                                                                                                                                                  , LN_USE_JATTR = F /
 &NAMMPP  JPNI = 0, JPNJ = 0, LN_NNOGATHER = F, LN_LISTONLY = F /
 &NAMEOS  LN_TEOS10 = F, LN_EOS80 = T, LN_SEOS = F, RN_A0 = 0.16550000000000001, RN_B0 = 0.76554, RN_LAMBDA1 = 5.95200000000000035E-2, RN_MU1 = 1.49700000000000007E-4, RN_LAMBDA2 = 7.49140000000000027E-4, RN_MU2 = 1.10900000000000005E-5, RN_NU = 2.43409999999999981E-3 /
 &NAMWAD  LN_WD_IL = F, LN_WD_DL = F, RN_WDMIN0 = 0.29999999999999999, RN_WDMIN1 = 0.20000000000000001, RN_WDMIN2 = 1.00000000000000005E-4, RN_WDLD = 2.5, NN_WDIT = 20, LN_WD_DL_BC = F, LN_WD_DL_RMP = F, RN_WD_SBCDEP = 5., RN_WD_SBCFRA = 0.999 /
 &NAMRUN  CN_OCERST_INDIR = ./restarts                                                                                                                                                                                                                                                      , CN_OCERST_OUTDIR = ./restarts                                                                                                                                                                                                                                                      , NN_STOCKLIST = 10*0, LN_RST_LIST = F, NN_NO = 0, CN_EXP = test_sanh                                                                                                                                                                                                                                                       , CN_OCERST_IN = SANH_2017_restart_NEW                                                                                                                                                                                                                                           , CN_OCERST_OUT = restart                                                                                                                                                                                                                                                         , LN_RSTART = T, NN_RSTCTL = 2, NN_IT000 = 2103841, NN_ITEND = 2111281, NN_DATE0 = 20170101, NN_TIME0 = 0, NN_LEAPY = 1, NN_ISTATE = 0, NN_STOCK = 0, NN_WRITE = 0, LN_MSKLAND = F, LN_CLOBBER = T, NN_CHUNKSZ = 0, NN_EULER = 0, LN_CFMETA = F, LN_ISCPL = F, LN_XIOS_READ = T, NN_WXIOS = 1 /
 &NAMDOM  LN_LINSSH = F, RN_ISFHMIN = 1., RN_RDT = 360., RN_ATFP = 0.10000000000000001, LN_CRS = F, LN_MESHMASK = F /
 &NAMLBC  RN_SHLAT = 0., LN_VORLAT = F /
 &NAM_VVL  LN_VVL_ZSTAR = T, LN_VVL_ZTILDE = F, LN_VVL_LAYER = F, LN_VVL_ZTILDE_AS_ZSTAR = F, LN_VVL_ZSTAR_AT_EQTOR = F, RN_AHE3 = 0., RN_RST_E3T = 30., RN_LF_CUTOFF = 5., RN_ZDEF_MAX = 0.90000000000000002, LN_VVL_DBG = T /
 &NAMTSD  LN_TSD_INIT = F, LN_TSD_INTERP = F, LN_TSD_DMP = F, CN_DIR =                                                                                                     , SN_TEM = votemper_CMEMS-GLOBAL_ANALYSIS_FORECAST_PHY_001_030-SANH_1993.nc                                                                                                                                                                                                , -12., votemper                          , F, T, yearly  ,                                                                                                                                                                                                                                                                 ,                                   ,                                   , SN_SAL = vosaline_CMEMS-GLOBAL_ANALYSIS_FORECAST_PHY_001_030-SANH_1993.nc                                                                                                                                                                                                , -12., vosaline                          , F, T, yearly  ,                                                                                                                                                                                                                                                                 ,                                   ,                                   , SN_DEP = initcd_depth.nc                                                                                                                                                                                                                                                 , -12., gdept_4D                          , F, T, yearly  ,                                                                                                                                                                                                                                                                 ,                                   ,                                   , SN_MSK = initcd_mask.nc                                                                                                                                                                                                                                                  , -12., mask                              , F, T, yearly  ,                                                                                                                                                                                                                                                                 ,                                   ,                                   , NN_TSD_ZONE = 2, RN_SAL_SF = 35.5, RN_MLD_SF = 120., RN_MAXDEP_SF = 5500., RN_C0_SF = 5., RN_C1_SF = 10. /
 &NAM_TIDE  LN_TIDE = T, LN_TIDE_POT = T, LN_SCAL_LOAD = F, LN_READ_LOAD = F, CN_TIDE_LOAD = tide_LOAD_grid_T.nc                                                                                                                                                                                                                                             , LN_TIDE_RAMP = F, RN_SCAL_LOAD = 9.40000000000000002E-2, RDTTIDERAMP = 0., DN_LOVE_NUMBER = 0.68999999999999995, CLNAME = 2N2 EPS2J1  K1  K2  L2  LA2 M2  M3  M4  M6  M8  MF  MKS2MM  MN4 MS4 MSF MSQMMTM MU2 N2  N4  NU2 O1  P1  Q1  R2  S1  S2  S4  SA  SSA T2   /
 &NAMSBC  NN_FSBC = 1, LN_USR = F, LN_FLX = F, LN_BLK = T, LN_CPL = F, LN_MIXCPL = F, NN_COMPONENTS = 0, NN_ICE = 0, LN_ICE_EMBD = F, LN_TRAQSR = T, LN_DM2DC = F, LN_RNF = T, NN_FWB = 0, LN_SSR = F, LN_ISF = F, LN_APR_DYN = F, LN_WAVE = F, LN_CDGW = F, LN_SDW = F, LN_TAUWOC = F, LN_STCOR = F, LN_TAUW = F, NN_LSM = 0, NN_SDRIFT = 0 /
 &NAMSBC_BLK  SN_WNDI = ERA5_U10                                                                                                                                                                                                                                                        , 1., U10                               , F, F, yearly  , weights_era5_SANH_bicubic.nc                                                                                                                                                                                                                                    , Uwnd                              ,                                   , SN_WNDJ = ERA5_V10                                                                                                                                                                                                                                                        , 1., V10                               , F, F, yearly  , weights_era5_SANH_bicubic.nc                                                                                                                                                                                                                                    , Vwnd                              ,                                   , SN_HUMI = ERA5_SPH                                                                                                                                                                                                                                                        , 1., SPH                               , F, F, yearly  , weights_era5_SANH_bilin.nc                                                                                                                                                                                                                                      ,                                   ,                                   , SN_QSR = ERA5_MSDWSWRF                                                                                                                                                                                                                                                   , 1., MSDWSWRF                          , F, F, yearly  , weights_era5_SANH_bilin.nc                                                                                                                                                                                                                                      ,                                   ,                                   , SN_QLW = ERA5_MSDWLWRF                                                                                                                                                                                                                                                   , 1., MSDWLWRF                          , F, F, yearly  , weights_era5_SANH_bilin.nc                                                                                                                                                                                                                                      ,                                   ,                                   , SN_TAIR = ERA5_T2M                                                                                                                                                                                                                                                        , 1., T2M                               , F, F, yearly  , weights_era5_SANH_bilin.nc                                                                                                                                                                                                                                      ,                                   ,                                   , SN_PREC = ERA5_MTPR                                                                                                                                                                                                                                                       , 1., MTPR                              , F, F, yearly  , weights_era5_SANH_bilin.nc                                                                                                                                                                                                                                      ,                                   ,                                   , SN_SNOW = ERA5_MSR                                                                                                                                                                                                                                                        , 1., MSR                               , F, F, yearly  , weights_era5_SANH_bilin.nc                                                                                                                                                                                                                                      ,                                   ,                                   , SN_SLP = ERA5_MSL                                                                                                                                                                                                                                                        , 1., MSL                               , F, F, yearly  , weights_era5_SANH_bilin.nc                                                                                                                                                                                                                                      ,                                   ,                                   , SN_TDIF = taudif_core                                                                                                                                                                                                                                                     , 24., taudif                            , F, T, yearly  , weights_core_orca2_bilinear_noc.nc                                                                                                                                                                                                                              ,                                   ,                                   , SN_CC = NOT USED                                                                                                                                                                                                                                                        , 24., CC                                , F, T, yearly  , weights_core_orca2_bilinear_noc.nc                                                                                                                                                                                                                              ,                                   ,                                   , LN_NCAR = F, LN_COARE_3P0 = F, LN_COARE_3P5 = F, LN_ECMWF = T, CN_DIR = ./SBC/                                                                                              , LN_TAUDIF = F, RN_ZQT = 2., RN_ZU = 10., RN_PFAC = 1., RN_EFAC = 1., RN_VFAC = 0., LN_CD_L12 = F, LN_CD_L15 = F /
 &NAMSBC_RNF  CN_DIR = ./                                                                                                  , LN_RNF_DEPTH = F, LN_RNF_TEM = F, LN_RNF_SAL = F, LN_RNF_ICB = F, SN_RNF = rivers_y2017                                                                                                                                                                                                                                                    , -1., rorunoff                          , T, T, yearly  ,                                                                                                                                                                                                                                                                 ,                                   ,                                   , SN_CNF = runoff_core_monthly                                                                                                                                                                                                                                             , 0., socoefr0                          , F, T, yearly  ,                                                                                                                                                                                                                                                                 ,                                   ,                                   , SN_I_RNF = NOT_USED                                                                                                                                                                                                                                                        , -1., sorunoff                          , T, T, yearly  ,                                                                                                                                                                                                                                                                 ,                                   ,                                   , SN_S_RNF = runoffs                                                                                                                                                                                                                                                         , 24., rosaline                          , T, T, yearly  ,                                                                                                                                                                                                                                                                 ,                                   ,                                   , SN_T_RNF = runoffs                                                                                                                                                                                                                                                         , 24., rotemper                          , T, T, yearly  ,                                                                                                                                                                                                                                                                 ,                                   ,                                   , SN_DEP_RNF = runoffs                                                                                                                                                                                                                                                         , 0., rodepth                           , F, T, yearly  ,                                                                                                                                                                                                                                                                 ,                                   ,                                   , LN_RNF_MOUTH = F, RN_HRNF = 15., RN_AVT_RNF = 1.00000000000000002E-3, RN_RFACT = 1., LN_RNF_DEPTH_INI = F, RN_DEP_MAX = 50., RN_RNF_MAX = 1.6224000000000001, NN_RNF_DEPTH_FILE = 0 /
 &NAMBDY  LN_BDY = T, NB_BDY = 1, LN_COORDS_FILE = 10*T, CN_COORDS_FILE = ./coordinates.bdy.nc                                                            coordinates.bdy.nc                                                              coordinates.bdy.nc                                                              coordinates.bdy.nc                                                              coordinates.bdy.nc                                                              coordinates.bdy.nc                                                              coordinates.bdy.nc                                                              coordinates.bdy.nc                                                              coordinates.bdy.nc                                                              coordinates.bdy.nc                                                              , LN_MASK_FILE = F, CN_MASK_FILE =                                                                                 , CN_DYN2D = flather             none                none                none                none                none                none                none                none                none                , NN_DYN2D_DTA = 3,  9*0, CN_DYN3D = specified           none                none                none                none                none                none                none                none                none                , NN_DYN3D_DTA = 1,  9*0, CN_TRA = frs                 none                none                none                none                none                none                none                none                none                , NN_TRA_DTA = 1,  9*0, LN_TRA_DMP = 10*F, LN_DYN3D_DMP = 10*F, RN_TIME_DMP = 8.,  9*1., RN_TIME_DMP_OUT = 64.,  9*1., CN_ICE = none                none                none                none                none                none                none                none                none                none                , NN_ICE_DTA = 10*0, LN_VOL = F, NN_VOLCTL = 1, NN_RIMWIDTH = 9,  9*0 /
 &NAMBDY_SSH  LN_SSH_BDY = 10*F, RN_SSH_SHIFT = 10*0. /