 &NAMMPP
 CN_MPI_SEND     = I,
 NN_BUFFER       =           0,
 JPNI    =          11,
 JPNJ    =           8,
 JPNIJ   =          88,
 LN_NNOGATHER    = F
 /
 &NAMCTL
 LN_CTL  = F,
 NN_PRINT        =           0,
 NN_ICTLS        =           0,
 NN_ICTLE        =           0,
 NN_ISPLT        =           1,
 NN_JSPLT        =           1,
 NN_JCTLS        =           0,
 NN_JCTLE        =           0,
 NN_TIMING       =           1,
 NN_DIACFL       =           0
 /
 &NAMCFG
 LN_READ_CFG     = T,
 CN_DOMCFG       = domain_cfg                                                                                                        
                                                                                                                                     
           ,
 LN_WRITE_CFG    = F,
 CN_DOMCFG_OUT   = domain_cfg_out                                                                                                    
                                                                                                                                     
           ,
 LN_USE_JATTR    = F
 /
 &NAMEOS
 LN_TEOS10       = F,
 LN_EOS80        = T,
 LN_SEOS = F,
 RN_A0   =  0.165500000000000     ,
 RN_B0   =  0.765540000000000     ,
 RN_LAMBDA1      =  5.952000000000000E-002,
 RN_MU1  =  1.497000000000000E-004,
 RN_LAMBDA2      =  7.491400000000000E-004,
 RN_MU2  =  1.109000000000000E-005,
 RN_NU   =  2.434100000000000E-003
 /
 &NAMWAD
 LN_WD   = F,
 RN_WDMIN1       =  0.100000000000000     ,
 RN_WDMIN2       =  1.000000000000000E-002,
 RN_WDLD =   20.0000000000000     ,
 NN_WDIT =          10
 /
 &NAMRUN
 CN_OCERST_INDIR = ./restarts                                                                                                        
                                                                                                                                     
           ,
 CN_OCERST_OUTDIR        = ./restarts                                                                                                
                                                                                                                                     
                   ,
 NN_STOCKLIST    = 10*0,
 LN_RST_LIST     = F,
 NN_NO   =           0,
 CN_EXP  = SANH                                                                                                                      
                                                                                                                                     
   ,
 CN_OCERST_IN    = SANH_00087600_restart                                                                                             
                                                                                                                                     
           ,
 CN_OCERST_OUT   = restart                                                                                                           
                                                                                                                                     
           ,
 LN_RSTART       = F,
 NN_RSTCTL       =           2,
 NN_IT000        =           1,
 NN_ITEND        =       87600,
 NN_DATE0        =    20170101,
 NN_TIME0        =           0,
 NN_LEAPY        =           1,
 NN_ISTATE       =           0,
 NN_STOCK        =       87600,
 NN_WRITE        =       87600,
 LN_MSKLAND      = F,
 LN_CLOBBER      = T,
 NN_CHUNKSZ      =           0,
 NN_EULER        =           1,
 LN_CFMETA       = F,
 LN_ISCPL        = F
 /
 &NAMDOM
 LN_LINSSH       = F,
 NN_CLOSEA       =           0,
 NN_MSH  =           0,
 RN_ISFHMIN      =   1.00000000000000     ,
 RN_RDT  =   360.000000000000     ,
 RN_ATFP =  0.100000000000000     ,
 LN_CRS  = F
 /
 &NAMLBC
 RN_SHLAT        =  0.000000000000000E+000,
 LN_VORLAT       = F
 /
 &NAM_VVL
 LN_VVL_ZSTAR    = T,
 LN_VVL_ZTILDE   = F,
 LN_VVL_LAYER    = F,
 LN_VVL_ZTILDE_AS_ZSTAR  = F,
 LN_VVL_ZSTAR_AT_EQTOR   = F,
 RN_AHE3 =  0.000000000000000E+000,
 RN_RST_E3T      =   30.0000000000000     ,
 RN_LF_CUTOFF    =   5.00000000000000     ,
 RN_ZDEF_MAX     =  0.900000000000000     ,
 LN_VVL_DBG      = T
 /
 &NAMTSD
 LN_TSD_INIT     = T,
 LN_TSD_INTERP   = T,
 LN_TSD_TRADMP   = F,
 CN_DIR  = ../../../INPUTS/ICS/                                                                                ,
 SN_TEM%CLNAME  = votemper_CMEMS-GLOBAL_REANALYSIS_PHY-001_030-SANH_2017.nc                                                          
                                                                                                                                     
          ,
 SN_TEM%NFREQH  =  -12.0000000000000     ,
 SN_TEM%CLVAR   = votemper                          ,
 SN_TEM%LN_TINT = F,
 SN_TEM%LN_CLIM = T,
 SN_TEM%CLTYPE  = yearly  ,
 SN_TEM%WNAME   =                                                                                                                    
                                                                                                                                     
          ,
 SN_TEM%VCOMP   =                                   ,
 SN_TEM%LNAME   =                                   ,
 SN_SAL%CLNAME  = vosaline_CMEMS-GLOBAL_REANALYSIS_PHY-001_030-SANH_2017.nc                                                          
                                                                                                                                     
          ,
 SN_SAL%NFREQH  =  -12.0000000000000     ,
 SN_SAL%CLVAR   = vosaline                          ,
 SN_SAL%LN_TINT = F,
 SN_SAL%LN_CLIM = T,
 SN_SAL%CLTYPE  = yearly  ,
 SN_SAL%WNAME   =                                                                                                                    
                                                                                                                                     
          ,
 SN_SAL%VCOMP   =                                   ,
 SN_SAL%LNAME   =                                   ,
 SN_DEP%CLNAME  = initcd_depth.nc                                                                                                    
                                                                                                                                     
          ,
 SN_DEP%NFREQH  =  -12.0000000000000     ,
 SN_DEP%CLVAR   = gdept_4D                          ,
 SN_DEP%LN_TINT = F,
 SN_DEP%LN_CLIM = T,
 SN_DEP%CLTYPE  = yearly  ,
 SN_DEP%WNAME   =                                                                                                                    
                                                                                                                                     
          ,
 SN_DEP%VCOMP   =                                   ,
 SN_DEP%LNAME   =                                   ,
 SN_MSK%CLNAME  = initcd_mask.nc                                                                                                     
                                                                                                                                     
          ,
 SN_MSK%NFREQH  =  -12.0000000000000     ,
 SN_MSK%CLVAR   = mask                              ,
 SN_MSK%LN_TINT = F,
 SN_MSK%LN_CLIM = T,
 SN_MSK%CLTYPE  = yearly  ,
 SN_MSK%WNAME   =                                                                                                                    
                                                                                                                                     
          ,
 SN_MSK%VCOMP   =                                   ,
 SN_MSK%LNAME   =                                   
 /
 &NAM_TIDE
 LN_TIDE = T,
 LN_TIDE_POT     = T,
 LN_TIDE_RAMP    = F,
 RDTTIDERAMP     =   5.00000000000000     ,
 DN_LOVE_NUMBER  =  0.690000000000000     ,
 CLNAME  = 2N2 EPS2J1  K1  K2  L2  LA2 M2  M3  M4  M6  M8  MF  MKS2MM  MN4 MS4 MSF MSQMMTM MU2 N2  N4  NU2 O1  P1  Q1  R2  S1  S2  S4
   SA  SSA T2  
 /
 &NAMSBC
 NN_FSBC =           1,
 LN_USR  = F,
 LN_FLX  = F,
 LN_BLK  = T,
 LN_CPL  = F,
 LN_MIXCPL       = F,
 NN_COMPONENTS   =           0,
 NN_LIMFLX       =          -1,
 NN_ICE  =           0,
 NN_ICE_EMBD     =           1,
 LN_TRAQSR       = F,
 LN_DM2DC        = F,
 LN_RNF  = T,
 NN_FWB  =           0,
 LN_SSR  = F,
 LN_ISF  = F,
 LN_APR_DYN      = F,
 LN_WAVE = F,
 LN_CDGW = F,
 LN_SDW  = F,
 LN_TAUOC        = F,
 LN_STCOR        = F,
 NN_LSM  =           0
 /
 &NAMSBC_BLK
 SN_WNDI%CLNAME  = ERA5_U10                                                                                                          
                                                                                                                                     
           ,
 SN_WNDI%NFREQH  =   1.00000000000000     ,
 SN_WNDI%CLVAR   = U10                               ,
 SN_WNDI%LN_TINT = T,
 SN_WNDI%LN_CLIM = F,
 SN_WNDI%CLTYPE  = yearly  ,
 SN_WNDI%WNAME   = weights_era5_SANH_bicubic.nc                                                                                      
                                                                                                                                     
           ,
 SN_WNDI%VCOMP   = Uwnd                              ,
 SN_WNDI%LNAME   = ERA5_LSM                          ,
 SN_WNDJ%CLNAME  = ERA5_V10                                                                                                          
                                                                                                                                     
           ,
 SN_WNDJ%NFREQH  =   1.00000000000000     ,
 SN_WNDJ%CLVAR   = V10                               ,
 SN_WNDJ%LN_TINT = T,
 SN_WNDJ%LN_CLIM = F,
 SN_WNDJ%CLTYPE  = yearly  ,
 SN_WNDJ%WNAME   = weights_era5_SANH_bicubic.nc                                                                                      
                                                                                                                                     
           ,
 SN_WNDJ%VCOMP   = Vwnd                              ,
 SN_WNDJ%LNAME   = ERA5_LSM                          ,
 SN_HUMI%CLNAME  = ERA5_SPH                                                                                                          
                                                                                                                                     
           ,
 SN_HUMI%NFREQH  =   1.00000000000000     ,
 SN_HUMI%CLVAR   = SPH                               ,
 SN_HUMI%LN_TINT = T,
 SN_HUMI%LN_CLIM = F,
 SN_HUMI%CLTYPE  = yearly  ,
 SN_HUMI%WNAME   = weights_era5_SANH_bilin.nc                                                                                        
                                                                                                                                     
           ,
 SN_HUMI%VCOMP   =                                   ,
 SN_HUMI%LNAME   = ERA5_LSM                          ,
 SN_QSR%CLNAME  = ERA5_MSDWSWRF                                                                                                      
                                                                                                                                     
          ,
 SN_QSR%NFREQH  =   1.00000000000000     ,
 SN_QSR%CLVAR   = MSDWSWRF                          ,
 SN_QSR%LN_TINT = T,
 SN_QSR%LN_CLIM = F,
 SN_QSR%CLTYPE  = yearly  ,
 SN_QSR%WNAME   = weights_era5_SANH_bilin.nc                                                                                         
                                                                                                                                     
          ,
 SN_QSR%VCOMP   =                                   ,
 SN_QSR%LNAME   = ERA5_LSM                          ,
 SN_QLW%CLNAME  = ERA5_MSDWLWRF                                                                                                      
                                                                                                                                     
          ,
 SN_QLW%NFREQH  =   1.00000000000000     ,
 SN_QLW%CLVAR   = MSDWLWRF                          ,
 SN_QLW%LN_TINT = T,
 SN_QLW%LN_CLIM = F,
 SN_QLW%CLTYPE  = yearly  ,
 SN_QLW%WNAME   = weights_era5_SANH_bilin.nc                                                                                         
                                                                                                                                     
          ,
 SN_QLW%VCOMP   =                                   ,
 SN_QLW%LNAME   = ERA5_LSM                          ,
 SN_TAIR%CLNAME  = ERA5_T2M                                                                                                          
                                                                                                                                     
           ,
 SN_TAIR%NFREQH  =   1.00000000000000     ,
 SN_TAIR%CLVAR   = T2M                               ,
 SN_TAIR%LN_TINT = T,
 SN_TAIR%LN_CLIM = F,
 SN_TAIR%CLTYPE  = yearly  ,
 SN_TAIR%WNAME   = weights_era5_SANH_bilin.nc                                                                                        
                                                                                                                                     
           ,
 SN_TAIR%VCOMP   =                                   ,
 SN_TAIR%LNAME   = ERA5_LSM                          ,
 SN_PREC%CLNAME  = ERA5_MTPR                                                                                                         
                                                                                                                                     
           ,
 SN_PREC%NFREQH  =   1.00000000000000     ,
 SN_PREC%CLVAR   = MTPR                              ,
 SN_PREC%LN_TINT = T,
 SN_PREC%LN_CLIM = F,
 SN_PREC%CLTYPE  = yearly  ,
 SN_PREC%WNAME   = weights_era5_SANH_bilin.nc                                                                                        
                                                                                                                                     
           ,
 SN_PREC%VCOMP   =                                   ,
 SN_PREC%LNAME   = ERA5_LSM                          ,
 SN_SNOW%CLNAME  = ERA5_MSR                                                                                                          
                                                                                                                                     
           ,
 SN_SNOW%NFREQH  =   1.00000000000000     ,
 SN_SNOW%CLVAR   = MSR                               ,
 SN_SNOW%LN_TINT = T,
 SN_SNOW%LN_CLIM = F,
 SN_SNOW%CLTYPE  = yearly  ,
 SN_SNOW%WNAME   = weights_era5_SANH_bilin.nc                                                                                        
                                                                                                                                     
           ,
 SN_SNOW%VCOMP   =                                   ,
 SN_SNOW%LNAME   = ERA5_LSM                          ,
 SN_SLP%CLNAME  = ERA5_MSL                                                                                                           
                                                                                                                                     
          ,
 SN_SLP%NFREQH  =   1.00000000000000     ,
 SN_SLP%CLVAR   = MSL                               ,
 SN_SLP%LN_TINT = T,
 SN_SLP%LN_CLIM = F,
 SN_SLP%CLTYPE  = yearly  ,
 SN_SLP%WNAME   = weights_era5_SANH_bilin.nc                                                                                         
                                                                                                                                     
          ,
 SN_SLP%VCOMP   =                                   ,
 SN_SLP%LNAME   =                                   ,
 SN_TDIF%CLNAME  = taudif_core                                                                                                       
                                                                                                                                     
           ,
 SN_TDIF%NFREQH  =   24.0000000000000     ,
 SN_TDIF%CLVAR   = taudif                            ,
 SN_TDIF%LN_TINT = F,
 SN_TDIF%LN_CLIM = T,
 SN_TDIF%CLTYPE  = yearly  ,
 SN_TDIF%WNAME   = weights_core_orca2_bilinear_noc.nc                                                                                
                                                                                                                                     
           ,
 SN_TDIF%VCOMP   =                                   ,
 SN_TDIF%LNAME   =                                   ,
 LN_NCAR = F,
 LN_COARE_3P0    = F,
 LN_COARE_3P5    = F,
 LN_ECMWF        = T,
 CN_DIR  = ../../../INPUTS/FORCING/                                                                            ,
 LN_TAUDIF       = F,
 RN_ZQT  =   2.00000000000000     ,
 RN_ZU   =   10.0000000000000     ,
 RN_PFAC =   1.00000000000000     ,
 RN_EFAC =   1.00000000000000     ,
 RN_VFAC =  0.000000000000000E+000,
 LN_CD_L12       = F
 /
 &NAMSBC_RNF
 CN_DIR  = ../../../INPUTS/RIVERS/                                                                             ,
 LN_RNF_DEPTH    = F,
 LN_RNF_TEM      = F,
 LN_RNF_SAL      = F,
 SN_RNF%CLNAME  = rivers_clim_v2.nc                                                                                                  
                                                                                                                                     
          ,
 SN_RNF%NFREQH  =  -1.00000000000000     ,
 SN_RNF%CLVAR   = rorunoff                          ,
 SN_RNF%LN_TINT = T,
 SN_RNF%LN_CLIM = T,
 SN_RNF%CLTYPE  = yearly  ,
 SN_RNF%WNAME   =                                                                                                                    
                                                                                                                                     
          ,
 SN_RNF%VCOMP   =                                   ,
 SN_RNF%LNAME   =                                   ,
 SN_CNF%CLNAME  = runoff_core_monthly                                                                                                
                                                                                                                                     
          ,
 SN_CNF%NFREQH  =  0.000000000000000E+000,
 SN_CNF%CLVAR   = socoefr0                          ,
 SN_CNF%LN_TINT = F,
 SN_CNF%LN_CLIM = T,
 SN_CNF%CLTYPE  = yearly  ,
 SN_CNF%WNAME   =                                                                                                                    
                                                                                                                                     
          ,
 SN_CNF%VCOMP   =                                   ,
 SN_CNF%LNAME   =                                   ,
 SN_S_RNF%CLNAME  = runoffs                                                                                                          
                                                                                                                                     
            ,
 SN_S_RNF%NFREQH  =   24.0000000000000     ,
 SN_S_RNF%CLVAR   = rosaline                          ,
 SN_S_RNF%LN_TINT = T,
 SN_S_RNF%LN_CLIM = T,
 SN_S_RNF%CLTYPE  = yearly  ,
 SN_S_RNF%WNAME   =                                                                                                                  
                                                                                                                                     
            ,
 SN_S_RNF%VCOMP   =                                   ,
 SN_S_RNF%LNAME   =                                   ,
 SN_T_RNF%CLNAME  = runoffs                                                                                                          
                                                                                                                                     
            ,
 SN_T_RNF%NFREQH  =   24.0000000000000     ,
 SN_T_RNF%CLVAR   = rotemper                          ,
 SN_T_RNF%LN_TINT = T,
 SN_T_RNF%LN_CLIM = T,
 SN_T_RNF%CLTYPE  = yearly  ,
 SN_T_RNF%WNAME   =                                                                                                                  
                                                                                                                                     
            ,
 SN_T_RNF%VCOMP   =                                   ,
 SN_T_RNF%LNAME   =                                   ,
 SN_DEP_RNF%CLNAME  = runoffs                                                                                                        
                                                                                                                                     
              ,
 SN_DEP_RNF%NFREQH  =  0.000000000000000E+000,
 SN_DEP_RNF%CLVAR   = rodepth                           ,
 SN_DEP_RNF%LN_TINT = F,
 SN_DEP_RNF%LN_CLIM = T,
 SN_DEP_RNF%CLTYPE  = yearly  ,
 SN_DEP_RNF%WNAME   =                                                                                                                
                                                                                                                                     
              ,
 SN_DEP_RNF%VCOMP   =                                   ,
 SN_DEP_RNF%LNAME   =                                   ,
 LN_RNF_MOUTH    = F,
 RN_HRNF =   15.0000000000000     ,
 RN_AVT_RNF      =  1.000000000000000E-003,
 RN_RFACT        =   1.00000000000000     ,
 LN_RNF_DEPTH_INI        = F,
 RN_DEP_MAX      =   50.0000000000000     ,
 RN_RNF_MAX      =   1.62240000000000     ,
 NN_RNF_DEPTH_FILE       =           0
 /
 &NAMBDY
 LN_BDY  = F,
 NB_BDY  =           1,
 LN_COORDS_FILE  = T, 9*F,
 CN_COORDS_FILE  = ./coordinates.bdy.nc                                                                                              
                                                                                                                                     
                                                                                                                                     
                                                                                                                                     
                                                                                                                                     
                                                                                                                                     
                           ,
 LN_MASK_FILE    = F,
 CN_MASK_FILE    = bdy_mask.nc                                                                     ,
 CN_DYN2D        = flather                                                                                                           
                                                                                       ,
 NN_DYN2D_DTA    =           3, 9*0,
 CN_DYN3D        = specified                                                                                                         
                                                                                       ,
 NN_DYN3D_DTA    =           1, 9*0,
 CN_TRA  = frs                                                                                                                       
                                                                               ,
 NN_TRA_DTA      =           1, 9*0,
 LN_TRA_DMP      = 10*F,
 LN_DYN3D_DMP    = 10*F,
 RN_TIME_DMP     =   1.00000000000000     , 9*0.000000000000000E+000  ,
 RN_TIME_DMP_OUT =   150.000000000000     , 9*0.000000000000000E+000  ,
 CN_ICE_LIM      = none                                                                                                              
                                                                                       ,
 NN_ICE_LIM_DTA  = 10*0,
 RN_ICE_TEM      =   270.000000000000     , 9*0.000000000000000E+000  ,
 RN_ICE_SAL      =   10.0000000000000     , 9*0.000000000000000E+000  ,
 RN_ICE_AGE      =   30.0000000000000     , 9*0.000000000000000E+000  ,
 LN_VOL  = F,
 NN_VOLCTL       =           1,
 NN_RIMWIDTH     =           9, 9*0,
 NB_JPK_BDY      =          50
 /
 &NAMZDF
 RN_AVM0 =  1.200000000000000E-006,
 RN_AVT0 =  1.200000000000000E-006,
 NN_AVB  =           0,
 NN_HAVTB        =           0,
 LN_ZDFEXP       = F,
 NN_ZDFEXP       =           3,
 LN_ZDFEVD       = F,
 NN_EVDM =           1,
 RN_AVEVD        =   100.000000000000     ,
 LN_ZDFNPC       = F,
 NN_NPC  =           1,
 NN_NPCP =         365,
 LN_ZDFQIAO      = F
 /
 &NAMBFR
 NN_BFR  =           2,
 RN_BFRI1        =  4.000000000000000E-004,
 RN_BFRI2        =  2.500000000000000E-003,
 RN_BFRI2_MAX    =  0.100000000000000     ,
 RN_BFEB2        =  0.000000000000000E+000,
 RN_BFRZ0        =  3.000000000000000E-003,
 LN_BFR2D        = F,
 RN_TFRI1        =  4.000000000000000E-004,
 RN_TFRI2        =  2.500000000000000E-003,
 RN_TFRI2_MAX    =  0.100000000000000     ,
 RN_TFEB2        =  0.000000000000000E+000,
 RN_TFRZ0        =  3.000000000000000E-003,
 LN_TFR2D        = F,
 RN_BFRIEN       =   50.0000000000000     ,
 RN_TFRIEN       =   50.0000000000000     ,
 LN_BFRIMP       = T,
 LN_LOGLAYER     = F
 /
 &NAMZDF_GLS
 RN_EMIN =  1.000000000000000E-006,
 RN_EPSMIN       =  1.000000000000000E-012,
 LN_LENGTH_LIM   = T,
 RN_CLIM_GALP    =  0.267000000000000     ,
 LN_SIGPSI       = T,
 RN_HSRO =  2.000000000000000E-002,
 RN_CRBAN        =   100.000000000000     ,
 RN_CHARN        =   70000.0000000000     ,
 RN_FRAC_HS      =   1.30000000000000     ,
 NN_BC_SURF      =           1,
 NN_BC_BOT       =           1,
 NN_Z0_MET       =           2,
 NN_STAB_FUNC    =           2,
 NN_CLOS =           1
 /
 &NAMTRA_LDF
 LN_TRALDF_LAP   = T,
 LN_TRALDF_BLP   = F,
 LN_TRALDF_LEV   = F,
 LN_TRALDF_HOR   = T,
 LN_TRALDF_TRIAD = F,
 LN_TRALDF_ISO   = F,
 LN_TRALDF_MSC   = F,
 RN_SLPMAX       =  1.000000000000000E-002,
 LN_TRIAD_ISO    = F,
 LN_BOTMIX_TRIAD = F,
 RN_SW_TRIAD     =   1.00000000000000     ,
 RN_AHT_0        =   125.000000000000     ,
 RN_BHT_0        =   1000000000000.00     ,
 NN_AHT_IJK_T    =           0
 /
 &NAMTRA_LDFEIV
 LN_LDFEIV       = F,
 LN_LDFEIV_DIA   = F,
 NN_AEI_IJK_T    =          21,
 RN_AEIV_0       =   2000.00000000000     
 /
 &NAMDYN_LDF
 LN_DYNLDF_LAP   = F,
 LN_DYNLDF_BLP   = T,
 LN_DYNLDF_LEV   = T,
 LN_DYNLDF_HOR   = F,
 LN_DYNLDF_ISO   = F,
 NN_AHM_IJK_T    =           0,
 RN_AHM_0        =   60.0000000000000     ,
 RN_AHM_B        =  0.000000000000000E+000,
 RN_BHM_0        =  -12500000000.0000     ,
 RN_CSMC =   3.50000000000000     ,
 RN_MINFAC       =   1.00000000000000     ,
 RN_MAXFAC       =   1.00000000000000     
 /
 &NAMTRA_QSR
 SN_CHL%CLNAME  = chlorophyll                                                                                                        
                                                                                                                                     
          ,
 SN_CHL%NFREQH  =  -1.00000000000000     ,
 SN_CHL%CLVAR   = CHLA                              ,
 SN_CHL%LN_TINT = T,
 SN_CHL%LN_CLIM = T,
 SN_CHL%CLTYPE  = yearly  ,
 SN_CHL%WNAME   =                                                                                                                    
                                                                                                                                     
          ,
 SN_CHL%VCOMP   =                                   ,
 SN_CHL%LNAME   =                                   ,
 CN_DIR  = ./                                                                                                  ,
 LN_QSR_RGB      = F,
 LN_QSR_2BD      = T,
 LN_QSR_BIO      = F,
 LN_QSR_ICE      = F,
 NN_CHLDTA       =           0,
 RN_ABS  =  0.580000000000000     ,
 RN_SI0  =  0.350000000000000     ,
 RN_SI1  =   23.0000000000000     
 /
 &NAMBBC
 LN_TRABBC       = F,
 NN_GEOFLX       =           2,
 RN_GEOFLX_CST   =  8.640000000000000E-002,
 SN_QGH%CLNAME  = geothermal_heating.nc                                                                                              
                                                                                                                                     
          ,
 SN_QGH%NFREQH  =  -12.0000000000000     ,
 SN_QGH%CLVAR   = heatflow                          ,
 SN_QGH%LN_TINT = F,
 SN_QGH%LN_CLIM = T,
 SN_QGH%CLTYPE  = yearly  ,
 SN_QGH%WNAME   =                                                                                                                    
                                                                                                                                     
          ,
 SN_QGH%VCOMP   =                                   ,
 SN_QGH%LNAME   =                                   ,
 CN_DIR  = ./                                                                                                                        
                                                                                                                                     
   
 /
 &NAMTRA_DMP
 LN_TRADMP       = F,
 NN_ZDMP =           0,
 CN_RESTO        = resto.nc                                                                                                          
                                                                                       
 /
 &NAMTRA_ADV
 LN_TRAADV_CEN   = F,
 NN_CEN_H        =           4,
 NN_CEN_V        =           4,
 LN_TRAADV_FCT   = T,